LIG


 48 52  0  0  0  0            999 V2000
   -4.9310   -5.0510   10.8620 C   0  0  0  0  0  0
   -6.3440   -4.6940   10.7510 N   0  0  0  0  0  0
   -6.7990   -3.7570    9.9230 C   0  0  0  0  0  0
   -8.1690   -3.6940   10.0900 C   0  0  0  0  0  0
   -9.0470   -2.8050    9.3770 N   0  0  0  0  0  0
  -10.2640   -3.1500    9.0120 N   0  0  0  0  0  0
  -10.8460   -2.1240    8.3670 C   0  0  0  0  0  0
   -9.9060   -1.1060    8.3500 C   0  0  0  0  0  0
   -9.9200    0.1770    7.8350 C   0  0  0  0  0  0
   -8.8140    0.9840    7.9690 C   0  0  0  0  0  0
   -8.8980    2.6010    7.2980 Cl  0  0  0  0  0  0
   -7.6390    0.5710    8.6150 C   0  0  0  0  0  0
   -6.4780    1.3990    8.7740 C   0  0  0  0  0  0
   -5.6790    0.9860    9.9890 C   0  0  0  0  0  0
   -4.8120   -0.2260    9.7610 C   0  0  0  0  0  0
   -4.0830   -0.2330    8.5510 N   0  0  0  0  0  0
   -2.6980   -0.2020    8.5590 C   0  0  0  0  0  0
   -1.8950   -1.4510    8.5750 C   0  0  0  0  0  0
   -1.0090   -0.9120    9.5070 O   0  0  0  0  0  0
   -2.1070   -0.1450    9.9650 C   0  0  0  0  0  0
   -4.8380    0.1040    7.4180 C   0  0  0  0  0  0
   -5.4640    1.4690    7.6790 C   0  0  0  0  0  0
   -7.6550   -0.7070    9.1170 C   0  0  0  0  0  0
   -8.7730   -1.5480    8.9900 C   0  0  0  0  0  0
   -8.5080   -4.6250   11.0430 C   0  0  0  0  0  0
   -7.3680   -5.2160   11.4230 N   0  0  0  0  0  0
   -4.6529   -5.1213   11.9239 H   0  0  0  0  0  0
   -4.7584   -6.0210   10.3728 H   0  0  0  0  0  0
   -4.3183   -4.2794   10.3728 H   0  0  0  0  0  0
   -6.1967   -3.1465    9.2341 H   0  0  0  0  0  0
  -11.8596   -2.0980    7.9406 H   0  0  0  0  0  0
  -10.8155    0.5525    7.3181 H   0  0  0  0  0  0
   -6.9659    2.3837    8.8230 H   0  0  0  0  0  0
   -5.0317    1.8261   10.2809 H   0  0  0  0  0  0
   -6.4022    0.7207   10.7743 H   0  0  0  0  0  0
   -4.0924   -0.2889   10.5906 H   0  0  0  0  0  0
   -5.4994   -1.0829    9.7045 H   0  0  0  0  0  0
   -2.6345    0.5290    7.7395 H   0  0  0  0  0  0
   -2.4469   -2.3281    8.9438 H   0  0  0  0  0  0
   -1.5077   -1.8604    7.6303 H   0  0  0  0  0  0
   -2.7175   -0.6417   10.7336 H   0  0  0  0  0  0
   -1.9516    0.8172   10.4748 H   0  0  0  0  0  0
   -4.1870    0.1517    6.5326 H   0  0  0  0  0  0
   -5.6155   -0.6511    7.2298 H   0  0  0  0  0  0
   -4.6731    2.1770    7.9674 H   0  0  0  0  0  0
   -5.9674    1.8024    6.7595 H   0  0  0  0  0  0
   -6.7620   -1.0851    9.6362 H   0  0  0  0  0  0
   -9.5184   -4.8421   11.4198 H   0  0  0  0  0  0
  1  2  1  0  0  0
  1 27  1  0  0  0
  1 28  1  0  0  0
  1 29  1  0  0  0
  2  3  1  0  0  0
  2 26  1  0  0  0
  3  4  2  0  0  0
  3 30  1  0  0  0
  4  5  1  0  0  0
  4 25  1  0  0  0
  5  6  1  0  0  0
  5 24  1  0  0  0
  6  7  2  0  0  0
  7  8  1  0  0  0
  7 31  1  0  0  0
  8  9  2  0  0  0
  8 24  1  0  0  0
  9 10  1  0  0  0
  9 32  1  0  0  0
 10 11  1  0  0  0
 10 12  2  0  0  0
 12 13  1  0  0  0
 12 23  1  0  0  0
 13 14  1  0  0  0
 13 22  1  0  0  0
 13 33  1  0  0  0
 14 15  1  0  0  0
 14 34  1  0  0  0
 14 35  1  0  0  0
 15 16  1  0  0  0
 15 36  1  0  0  0
 15 37  1  0  0  0
 16 17  1  0  0  0
 16 21  1  0  0  0
 17 18  1  0  0  0
 17 20  1  0  0  0
 17 38  1  0  0  0
 18 19  1  0  0  0
 18 39  1  0  0  0
 18 40  1  0  0  0
 19 20  1  0  0  0
 20 41  1  0  0  0
 20 42  1  0  0  0
 21 22  1  0  0  0
 21 43  1  0  0  0
 21 44  1  0  0  0
 22 45  1  0  0  0
 22 46  1  0  0  0
 23 24  2  0  0  0
 23 47  1  0  0  0
 25 26  2  0  0  0
 25 48  1  0  0  0
M  END
$$$$
