A1AV4
       OST09202413433D                            

 26 30  0  0  0  0            999 V2000
   -0.0340   -2.2420   21.5390 C   0  0  0  0  0  0
    5.7970   -5.1360   14.7980 C   0  0  0  0  0  0
    6.1380   -5.6460   16.2060 C   0  0  0  0  0  0
    5.1050   -7.8350   15.6290 C   0  0  0  0  0  0
    4.6930   -8.4630   13.3040 C   0  0  0  0  0  0
    3.4560   -9.3880   13.4290 C   0  0  0  0  0  0
    4.0730   -8.1520   11.8910 C   0  0  0  0  0  0
    8.8140   -4.1770   16.1810 Cl  0  0  0  0  0  0
    7.4870   -3.7280   17.1920 C   0  0  0  0  0  0
    7.6200   -2.5750   17.9480 C   0  0  0  0  0  0
    6.5580   -2.1560   18.7450 C   0  0  0  0  0  0
    6.2720   -1.0370   19.5690 C   0  0  0  0  0  0
    5.0690   -1.1000   20.0950 N   0  0  0  0  0  0
    4.5050   -2.2560   19.6090 N   0  0  0  0  0  0
    3.1110   -2.4500   19.8150 C   0  0  0  0  0  0
    2.2400   -3.2370   19.0590 C   0  0  0  0  0  0
    1.0260   -3.2480   19.5910 N   0  0  0  0  0  0
    1.1270   -2.4540   20.6810 N   0  0  0  0  0  0
    2.3630   -1.9540   20.8360 C   0  0  0  0  0  0
    5.3920   -2.9360   18.7840 C   0  0  0  0  0  0
    5.2810   -4.1120   18.0460 C   0  0  0  0  0  0
    6.3280   -4.5060   17.1950 C   0  0  0  0  0  0
    5.1000   -6.6880   16.6270 C   0  0  0  0  0  0
    4.7060   -7.3070   14.2760 N   0  3  0  0  0  0
    5.7070   -6.2890   13.7970 C   0  0  0  0  0  0
    2.8390   -8.8320   12.2380 O   0  0  0  0  0  0
  1 18  1  0  0  0
  2  3  1  0  0  0
  2 25  1  0  0  0
  3 22  1  0  0  0
  3 23  1  0  0  0
  4 23  1  0  0  0
  4 24  1  0  0  0
  5  6  1  0  0  0
  5  7  1  0  0  0
  5 24  1  0  0  0
  6 26  1  0  0  0
  7 26  1  0  0  0
  8  9  1  0  0  0
  9 10  1  0  0  0
  9 22  1  0  0  0
 10 11  1  0  0  0
 11 12  1  0  0  0
 11 20  1  0  0  0
 12 13  1  0  0  0
 13 14  1  0  0  0
 14 15  1  0  0  0
 14 20  1  0  0  0
 15 16  1  0  0  0
 15 19  1  0  0  0
 16 17  1  0  0  0
 17 18  1  0  0  0
 18 19  1  0  0  0
 20 21  1  0  0  0
 21 22  1  0  0  0
 24 25  1  0  0  0
M  END
$$$$
